#
# Generated from file gri30.inp
# by ck2cti on Mon Aug 25 09:52:57 2003
#
# Transport data from file ../transport/gri30_tran.dat.

units(length = "cm", time = "s", quantity = "mol", act_energy = "cal/mol")


ideal_gas(name = "gri30",
      elements = " O  H N ",
      species = """ H2  H  O  O2  OH  H2O  HO2  H2O2  N2 """,
      reactions = "none",
      initial_state = state(temperature = 300.0,
                        pressure = OneAtm)    )


#-------------------------------------------------------------------------------
#  Species data 
#-------------------------------------------------------------------------------



species(name = "H2",
    atoms = " H:2 ",
    thermo = (
       NASA( [  200.00,  1000.00], [  2.344331120E+00,   7.980520750E-03, 
               -1.947815100E-05,   2.015720940E-08,  -7.376117610E-12,
               -9.179351730E+02,   6.830102380E-01] ),
       NASA( [ 1000.00,  6000.00], [  2.932865790E+00,   8.266079670E-04, 
               -1.464023350E-07,   1.541003590E-11,  -6.888044320E-16,
               -8.130655970E+02,  -1.024328870E+00] )
             ),
    transport = gas_transport(
                     geom = "linear",
                     diam =     2.92,
                     well_depth =    38.00,
                     polar =     0.79,
                     rot_relax =   280.00),
    note = "TPIS78"
       )

species(name = "H",
    atoms = " H:1 ",
    thermo = (
       NASA( [  200.00,  1000.00], [  2.500000000E+00,   0.000000000E+00, 
                0.000000000E+00,   0.000000000E+00,   0.000000000E+00,
                2.547365990E+04,  -4.466828530E-01] ),
       NASA( [ 1000.00,  6000.00], [  2.500002860E+00,  -5.653342140E-09, 
                3.632517230E-12,  -9.199497200E-16,   7.952607460E-20,
                2.547365890E+04,  -4.466984940E-01] )
             ),
    transport = gas_transport(
                     geom = "atom",
                     diam =     2.05,
                     well_depth =   145.00),
    note = "L 7/88"
       )

species(name = "O",
    atoms = " O:1 ",
    thermo = (
       NASA( [  200.00,  1000.00], [  3.168267100E+00,  -3.279318840E-03, 
                6.643063960E-06,  -6.128066240E-09,   2.112659710E-12,
                2.912225920E+04,   2.051933460E+00] ),
       NASA( [ 1000.00,  6000.00], [  2.543636970E+00,  -2.731624860E-05, 
               -4.190295200E-09,   4.954818450E-12,  -4.795536940E-16,
                2.922601200E+04,   4.922294570E+00] )
             ),
    transport = gas_transport(
                     geom = "atom",
                     diam =     2.75,
                     well_depth =    80.00),
    note = "L 1/90"
       )

species(name = "O2",
    atoms = " O:2 ",
    thermo = (
       NASA( [  200.00,  1000.00], [  3.782456360E+00,  -2.996734150E-03, 
                9.847302000E-06,  -9.681295080E-09,   3.243728360E-12,
               -1.063943560E+03,   3.657675730E+00] ),
       NASA( [ 1000.00,  6000.00], [  3.660960830E+00,   6.563655230E-04, 
               -1.411494850E-07,   2.057976580E-11,  -1.299132480E-15,
               -1.215977250E+03,   3.415361840E+00] )
             ),
    transport = gas_transport(
                     geom = "linear",
                     diam =     3.46,
                     well_depth =   107.40,
                     polar =     1.60,
                     rot_relax =     3.80),
    note = "TPIS89"
       )

species(name = "OH",
    atoms = " O:1  H:1 ",
    thermo = (
       NASA( [  200.00,  1000.00], [  3.992015430E+00,  -2.401317520E-03, 
                4.617938410E-06,  -3.881133330E-09,   1.364114700E-12,
                3.615080560E+03,  -1.039254580E-01] ),
       NASA( [ 1000.00,  6000.00], [  2.838646070E+00,   1.107255860E-03, 
               -2.939149780E-07,   4.205242470E-11,  -2.421690920E-15,
                3.943958520E+03,   5.844526620E+00] )
             ),
    transport = gas_transport(
                     geom = "linear",
                     diam =     2.75,
                     well_depth =    80.00),
    note = "RUS 78"
       )

species(name = "H2O",
    atoms = " H:2  O:1 ",
    thermo = (
       NASA( [  200.00,  1000.00], [  4.198640560E+00,  -2.036434100E-03, 
                6.520402110E-06,  -5.487970620E-09,   1.771978170E-12,
               -3.029372670E+04,  -8.490322080E-01] ),
       NASA( [ 1000.00,  6000.00], [  2.677037870E+00,   2.973183290E-03, 
               -7.737696900E-07,   9.443366890E-11,  -4.269009590E-15,
               -2.988589380E+04,   6.882555710E+00] )
             ),
    transport = gas_transport(
                     geom = "nonlinear",
                     diam =     2.60,
                     well_depth =   572.40,
                     dipole =     1.84,
                     rot_relax =     4.00),
    note = "L 8/89"
       )

species(name = "HO2",
    atoms = " H:1  O:2 ",
    thermo = (
       NASA( [  200.00,  1000.00], [  4.301798010E+00,  -4.749120510E-03, 
                2.115828910E-05,  -2.427638940E-08,   9.292251240E-12,
                2.948080400E+02,   3.716662450E+00] ),
       NASA( [ 1000.00,  6000.00], [  4.172287280E+00,   1.881176470E-03, 
               -3.462774080E-07,   1.946578530E-11,   1.762542940E-16,
                6.181029640E+01,   2.957677460E+00] )
             ),
    transport = gas_transport(
                     geom = "nonlinear",
                     diam =     3.46,
                     well_depth =   107.40,
                     rot_relax =     1.00),
    note = "L 5/89"
       )

species(name = "H2O2",
    atoms = " H:2  O:2 ",
    thermo = (
       NASA( [  200.00,  1000.00], [  4.276112690E+00,  -5.428224170E-04, 
                1.673357010E-05,  -2.157708130E-08,   8.624543630E-12,
               -1.775429890E+04,   3.435050740E+00] ),
       NASA( [ 1000.00,  6000.00], [  4.573335370E+00,   4.049840700E-03, 
               -1.294794790E-06,   1.972817100E-10,  -1.134028460E-14,
               -1.805481210E+04,   7.042784880E-01] )
             ),
    transport = gas_transport(
                     geom = "nonlinear",
                     diam =     3.46,
                     well_depth =   107.40,
                     rot_relax =     3.80),
    note = "L 7/88"
       )

species(name = "N2",
    atoms = " N:2 ",
    thermo = (
       NASA( [  300.00,  1000.00], [  3.298677000E+00,   1.408240400E-03, 
               -3.963222000E-06,   5.641515000E-09,  -2.444854000E-12,
               -1.020899900E+03,   3.950372000E+00] ),
       NASA( [ 1000.00,  5000.00], [  2.926640000E+00,   1.487976800E-03, 
               -5.684760000E-07,   1.009703800E-10,  -6.753351000E-15,
               -9.227977000E+02,   5.980528000E+00] )
             ),
    transport = gas_transport(
                     geom = "linear",
                     diam =     3.62,
                     well_depth =    97.53,
                     polar =     1.76,
                     rot_relax =     4.00),
    note = "121286"
       )

