units(length='cm', time='s', quantity='mol', act_energy='cal/mol')

ideal_gas(name='gas',
          elements="O H C N Ar He",
          species="""AR                N2                HE                H                 O                 
                     OH                HO2               H2                H2O               H2O2              
                     O2                OH*               C                 CH                CH2               
                     CH2*              CH3               CH4               CH*               HCO               
                     CH2O              CH3O              CH2OH             CH3OH             CO                
                     CO2               C2O               C2H               C2H2              H2CC              
                     C2H3              C2H4              C2H5              C2H6              HCCO              
                     HCCOH             CH2CO             CH3CO             CH2CHO            CH2OCH            
                     CH3CHO            CH2OCH2           C3H3              pC3H4             aC3H4             
                     cC3H4             aC3H5             CH3CCH2           CH3CHCH           C3H6              
                     nC3H7             iC3H7             C3H8              CH2CHCO           C2H3CHO           
                     CH3CHOCH2         CH3CH2CHO         CH3COCH3          C4H2              nC4H3             
                     iC4H3             C4H4              nC4H5             iC4H5             C4H5-2            
                     c-C4H5            C4H6              C4H612            C4H6-2            C4H7              
                     iC4H7             C4H81             C4H82             iC4H8             pC4H9             
                     sC4H9             iC4H9             tC4H9             C4H10             iC4H10            
                     H2C4O             C4H4O             CH2CHCHCHO        CH3CHCHCO         C2H3CHOCH2        
                     C4H6O23           CH3CHCHCHO        C4H6O25           C5H4O             C5H5O(1,3)        
                     C5H5O(2,4)        C5H4OH            C5H5OH            C5H5              C5H6              
                     lC5H7             cC5H9             cC5H8             C6H2              C6H3              
                     l-C6H4            o-C6H4            C6H5              C6H6              C6H5CH2           
                     C6H5CH3           C6H5O             C6H5OH            C6H4O2            C6H5CO            
                     C6H5CHO           C6H5CH2OH         OC6H4CH3          HOC6H4CH3         C6H4CH3           
                     NC12H26           PXC12H25          SXC12H25          C12H24            PXC12H23          
                     NC11H24           PXC11H23          SXC11H23          C11H22            PXC11H21          
                     NC10H22           PXC10H21          SXC10H21          C10H20            PXC10H19          
                     NC9H20            PXC9H19           SXC9H19           C9H18             PXC9H17           
                     NC8H18            PXC8H17           SXC8H17           C8H16             PXC8H15           
                     NC7H16            PXC7H15           SXC7H15           C7H14             PXC7H13           
                     NC6H14            PXC6H13           SXC6H13           C6H12             PXC6H11           
                     SXC6H11           S2XC6H11          SAXC6H11          cC6H11            cC6H10            
                     PXCH2cC5H9        C6H10-13          PXCH2-4-1C5H9     NC5H12            PXC5H11           
                     SXC5H11           C5H10             PXC5H9            SXC5H9            SAXC5H9           
                     C5H8-13           C5H8-14           C5H8-12           PXCH2-3-1C4H7     S2XC12H25         
                     S3XC12H25         S4XC12H25         S5XC12H25         S2XC11H23         S3XC11H23         
                     S4XC11H23         S5XC11H23         S2XC10H21         S3XC10H21         S4XC10H21         
                     S2XC9H19          S3XC9H19          S4XC9H19          S2XC8H17          S3XC8H17          
                     S2XC7H15          S3XC7H15          S2XC6H13          S2XC5H11          PC12H25O2         
                     P12OOHX2          OC12OOH           C4H9cC6H11        C10H20-5          C4H9-2-1C6H11     
                     PXC4H8cC6H11      SXC4H8cC6H11      S2XC4H8cC6H11     S3XC4H8cC6H11     C4H9TXcC6H10      
                     C4H9S2XcC6H10     C4H9S3XcC6H10     C4H9S4XcC6H10     PX10-4C10H19      PXC4H8-2-1C6H11   
                     PX10-5C10H19      PXC3H6-3-1C7H13   S4XC10H19         PXC2H4-4-1C8H15   PXCH2-5-1C9H17    
                     SAX6-4C10H19      SAX4-5C10H19      SAXC10H19         SAXC4H8-2-1C6H11  C3H7-3-TAX1C7H13  
                     C2H5-4-SAX1C8H14  CH3-5-SAX1C9H16   C3H7cC6H11        C9H18-4           C3H7-2-1C6H11     
                     C3H7-3-1C6H11     CH3-4-1C8H15      C2H5-4-1C7H13     PXC3H6cC6H11      SXC3H6cC6H11      
                     S2XC3H6cC6H11     C3H7S2XcC6H10     C3H7S3XcC6H10     C3H7TXcC6H10      C3H7S4XcC6H10     
                     PX9-3C9H17        PX9-4C9H17        C3H7-2-PXC6H10    S3XC9H17          PXC3H6-3-1C6H11   
                     PXC2H4-4-1C7H13   PXCH2-5-1C8H15    SAX5-3C9H17       C3H7-3-TAX1C6H10  C3H7-2-SAXC6H10   
                     SAX6-4C9H17       SAXC9H17          C2H5-4-SAX1C7H12  CH3-5-SAX1C8H14   C3H5cC6H11        
                     C2H5cC6H11        C8H16-3           C2H5-2-1C6H11     PXC2H4cC6H11      SXC2H4cC6H11      
                     C2H5TXcC6H10      C2H5S2XcC6H10     C2H5S3XcC6H10     C2H5S4XcC6H10     PX8-2C8H15        
                     C2H5-2-PXC6H10    PX8-3C8H15        C2H5-3-PXC6H10    S2XC8H15          PXC2H4-4-1C6H11   
                     PXCH2-5-1C7H13    SAX4-2C8H15       C2H5-2-SAX1C6H10  SAX5-3C8H15       C2H5-3-TAX1C6H10  
                     SAXC8H15          C2H5-4-SAX1C6H10  CH3-5-SAX1C7H12   PX1-4C8H15        PX1-3C8H15        
                     S4XC8H15          PXC2H4-2-1C6H11   PXCH2-3-1C7H13    C2H3cC6H11        C8H14-13          
                     CH2-3-1C7H12      PXCH2-2-C6H13     CH3-2-SXC6H12     CH3cC6H11         C7H14-2           
                     CH3-2-1C6H11      PXCH2cC6H11       CH3TXcC6H10       CH3S2XcC6H10      CH3-2-PXC6H10     
                     CH3S4XcC6H10      CH3S3XcC6H10      PX7-2C7H13        CH3-3-PXC6H10     SXC7H13           
                     SAXC7H13          CH3-4-PXC6H10     PXCH2-5-1C6H11    CH3-5-SAXC6H10    SAX4-2C7H13       
                     CH3-4-SAXC6H10    CH3-2-SAXC6H10    CH3-3-TAXC6H10    PAXCH2-2-1C6H11   PX1-3C7H13        
                     PXCH2-3-1C6H11    S3XC7H13          PXC2H4-2-1C5H9    C2H5-2-SAX1C5H9   C7H12-13          
                     C7H12-16          CH2-3-1C6H10      CH2cC6H10         cC6H12            CH3-2-1C5H9       
                     cC6H11O2          cC6H10O2H-2       SOOcC6O2H         SOOcC6O           PXCH2-3-1C5H9     
                     PX1-3C6H11        PAXCH2-2-1C5H9    PX6-2C6H11        PXC2H4-2-1C4H7    CH3S3XcC5H8       
                     C6H10-15          C6H10-12          C2H5-2-C4H513     CH2-3-1C5H8       C2H3-2-1C4H7      
                     SAXcC6H9          SAXC6H9-15        cC6H8-13          SAXcC6H7          PXCH2-2-C4H9      
                     CH3-2-1C4H7       PAXCH2-2-1C4H7    CH3-2-PXC4H6      CH3-2-C4H5-13     PAXCH2-2-C4H5     
                     SAXC4H7           CH3cC6H10OO       CH3cC6H9OOH       CH3cC6H9O3        C2H5cC6H10OO      
                     C2H5cC6H9OOH      C2H5cC6H9O3       C3H7cC6H10OO      C3H7cC6H9OOH      C3H7cC6H9O3       
                     C4H9cC6H10OO      C4H9cC6H9OOH      C4H9cC6H9O3""",
          reactions='all',
          transport='Mix',
          options = 'allow_discontinuous_thermo',
          initial_state=state(temperature=300.0, pressure=OneAtm))

#-------------------------------------------------------------------------------
# Species data
# Mechanism contains 348 species and 2163 reactions.
#-------------------------------------------------------------------------------

species(name='AR',
        atoms='Ar:1',
        thermo=(NASA([300.00, 1000.00],
                     [ 2.50000000E+00,  0.00000000E+00,  0.00000000E+00,
                       0.00000000E+00,  0.00000000E+00, -7.45375000E+02,
                       4.36600000E+00]),
                NASA([1000.00, 5000.00],
                     [ 2.50000000E+00,  0.00000000E+00,  0.00000000E+00,
                       0.00000000E+00,  0.00000000E+00, -7.45375000E+02,
                       4.36600000E+00])),
        transport=gas_transport(geom='atom',
                                diam=3.33,
                                well_depth=136.5),
        note='120186')

species(name='N2',
        atoms='N:2',
        thermo=(NASA([300.00, 1000.00],
                     [ 3.29867700E+00,  1.40824040E-03, -3.96322200E-06,
                       5.64151500E-09, -2.44485400E-12, -1.02089990E+03,
                       3.95037200E+00]),
                NASA([1000.00, 5000.00],
                     [ 2.92664000E+00,  1.48797680E-03, -5.68476000E-07,
                       1.00970380E-10, -6.75335100E-15, -9.22797700E+02,
                       5.98052800E+00])),
        transport=gas_transport(geom='linear',
                                diam=3.621,
                                well_depth=97.53,
                                polar=1.76,
                                rot_relax=4.0),
        note='121286')

species(name='HE',
        atoms='He:1',
        thermo=(NASA([200.00, 1000.00],
                     [ 2.50000000E+00,  0.00000000E+00,  0.00000000E+00,
                       0.00000000E+00,  0.00000000E+00, -7.45375000E+02,
                       9.28723974E-01]),
                NASA([1000.00, 6000.00],
                     [ 2.50000000E+00,  0.00000000E+00,  0.00000000E+00,
                       0.00000000E+00,  0.00000000E+00, -7.45375000E+02,
                       9.28723974E-01])),
        transport=gas_transport(geom='atom',
                                diam=2.576,
                                well_depth=10.2),
        note='L10/90')

species(name='H',
        atoms='H:1',
        thermo=(NASA([200.00, 1000.00],
                     [ 2.50000000E+00,  7.05332819E-13, -1.99591964E-15,
                       2.30081632E-18, -9.27732332E-22,  2.54736599E+04,
                      -4.46682853E-01]),
                NASA([1000.00, 3500.00],
                     [ 2.50000001E+00, -2.30842973E-11,  1.61561948E-14,
                      -4.73515235E-18,  4.98197357E-22,  2.54736599E+04,
                      -4.46682914E-01])),
        transport=gas_transport(geom='atom',
                                diam=2.05,
                                well_depth=145.0),
        note='L7/88')

species(name='O',
        atoms='O:1',
        thermo=(NASA([200.00, 1000.00],
                     [ 3.16826710E+00, -3.27931884E-03,  6.64306396E-06,
                      -6.12806624E-09,  2.11265971E-12,  2.91222592E+04,
                       2.05193346E+00]),
                NASA([1000.00, 3500.00],
                     [ 2.56942078E+00, -8.59741137E-05,  4.19484589E-08,
                      -1.00177799E-11,  1.22833691E-15,  2.92175791E+04,
                       4.78433864E+00])),
        transport=gas_transport(geom='atom',
                                diam=2.75,
                                well_depth=80.0),
        note='L1/90')

species(name='OH',
        atoms='H:1 O:1',
        thermo=(NASA([200.00, 1000.00],
                     [ 4.12530561E+00, -3.22544939E-03,  6.52764691E-06,
                      -5.79853643E-09,  2.06237379E-12,  3.38153812E+03,
                      -6.90432960E-01]),
                NASA([1000.00, 6000.00],
                     [ 2.86472886E+00,  1.05650448E-03, -2.59082758E-07,
                       3.05218674E-11, -1.33195876E-15,  3.71885774E+03,
                       5.70164073E+00])),
        transport=gas_transport(geom='linear',
                                diam=2.75,
                                well_depth=80.0),
        note='S9/01')

species(name='HO2',
        atoms='H:1 O:2',
        thermo=(NASA([200.00, 1000.00],
                     [ 4.30179801E+00, -4.74912051E-03,  2.11582891E-05,
                      -2.42763894E-08,  9.29225124E-12,  2.94808040E+02,
                       3.71666245E+00]),
                NASA([1000.00, 3500.00],
                     [ 4.01721090E+00,  2.23982013E-03, -6.33658150E-07,
                       1.14246370E-10, -1.07908535E-14,  1.11856713E+02,
                       3.78510215E+00])),
        transport=gas_transport(geom='nonlinear',
                                diam=3.458,
                                well_depth=107.4,
                                rot_relax=1.0),
        note='L5/89')

species(name='H2',
        atoms='H:2',
        thermo=(NASA([200.00, 1000.00],
                     [ 2.34433112E+00,  7.98052075E-03, -1.94781510E-05,
                       2.01572094E-08, -7.37611761E-12, -9.17935173E+02,
                       6.83010238E-01]),
                NASA([1000.00, 3500.00],
                     [ 3.33727920E+00, -4.94024731E-05,  4.99456778E-07,
                      -1.79566394E-10,  2.00255376E-14, -9.50158922E+02,
                      -3.20502331E+00])),
        transport=gas_transport(geom='linear',
                                diam=2.92,
                                well_depth=38.0,
                                polar=0.79,
                                rot_relax=280.0),
        note='TPIS78')

species(name='H2O',
        atoms='H:2 O:1',
        thermo=(NASA([200.00, 1000.00],
                     [ 4.19864056E+00, -2.03643410E-03,  6.52040211E-06,
                      -5.48797062E-09,  1.77197817E-12, -3.02937267E+04,
                      -8.49032208E-01]),
                NASA([1000.00, 3500.00],
                     [ 3.03399249E+00,  2.17691804E-03, -1.64072518E-07,
                      -9.70419870E-11,  1.68200992E-14, -3.00042971E+04,
                       4.96677010E+00])),
        transport=gas_transport(geom='nonlinear',
                                diam=2.605,
                                well_depth=572.4,
                                dipole=1.844,
                                rot_relax=4.0),
        note='L8/89')

species(name='H2O2',
        atoms='H:2 O:2',
        thermo=(NASA([200.00, 1000.00],
                     [ 4.27611269E+00, -5.42822417E-04,  1.67335701E-05,
                      -2.15770813E-08,  8.62454363E-12, -1.77025821E+04,
                       3.43505074E+00]),
                NASA([1000.00, 3500.00],
                     [ 4.16500285E+00,  4.90831694E-03, -1.90139225E-06,
                       3.71185986E-10, -2.87908305E-14, -1.78617877E+04,
                       2.91615662E+00])),
        transport=gas_transport(geom='nonlinear',
                                diam=3.458,
                                well_depth=107.4,
                                rot_relax=3.8),
        note='L7/88')

species(name='O2',
        atoms='O:2',
        thermo=(NASA([200.00, 1000.00],
                     [ 3.78245636E+00, -2.99673416E-03,  9.84730201E-06,
                      -9.68129509E-09,  3.24372837E-12, -1.06394356E+03,
                       3.65767573E+00]),
                NASA([1000.00, 3500.00],
                     [ 3.28253784E+00,  1.48308754E-03, -7.57966669E-07,
                       2.09470555E-10, -2.16717794E-14, -1.08845772E+03,
                       5.45323129E+00])),
        transport=gas_transport(geom='linear',
                                diam=3.458,
                                well_depth=107.4,
                                polar=1.6,
                                rot_relax=3.8),
        note='TPIS89')

species(name='OH*',
        atoms='H:1 O:1',
        thermo=(NASA([200.00, 1000.00],
                     [ 3.46084428E+00,  5.01872172E-04, -2.00254474E-06,
                       3.18901984E-09, -1.35451838E-12,  5.07349466E+04,
                       1.73976415E+00]),
                NASA([1000.00, 6000.00],
                     [ 2.75582920E+00,  1.39848756E-03, -4.19428493E-07,
                       6.33453282E-11, -3.56042218E-15,  5.09751756E+04,
                       5.62581429E+00])),
        transport=gas_transport(geom='linear',
                                diam=2.75,
                                well_depth=80.0),
        note='ATcTA')

species(name='C',
        atoms='C:1',
        thermo=(NASA([200.00, 1000.00],
                     [ 2.55423955E+00, -3.21537724E-04,  7.33792245E-07,
                      -7.32234889E-10,  2.66521446E-13,  8.54438832E+04,
                       4.53130848E+00]),
                NASA([1000.00, 3500.00],
                     [ 2.49266888E+00,  4.79889284E-05, -7.24335020E-08,
                       3.74291029E-11, -4.87277893E-15,  8.54512953E+04,
                       4.80150373E+00])),
        transport=gas_transport(geom='atom',
                                diam=3.298,
                                well_depth=71.4),
        note='L11/88')

species(name='CH',
        atoms='H:1 C:1',
        thermo=(NASA([200.00, 1000.00],
                     [ 3.48981665E+00,  3.23835541E-04, -1.68899065E-06,
                       3.16217327E-09, -1.40609067E-12,  7.07972934E+04,
                       2.08401108E+00]),
                NASA([1000.00, 3500.00],
                     [ 2.87846473E+00,  9.70913681E-04,  1.44445655E-07,
                      -1.30687849E-10,  1.76079383E-14,  7.10124364E+04,
                       5.48497999E+00])),
        transport=gas_transport(geom='linear',
                                diam=2.75,
                                well_depth=80.0),
        note='TPIS79')

species(name='CH2',
        atoms='H:2 C:1',
        thermo=(NASA([200.00, 1000.00],
                     [ 3.76267867E+00,  9.68872143E-04,  2.79489841E-06,
                      -3.85091153E-09,  1.68741719E-12,  4.60040401E+04,
                       1.56253185E+00]),
                NASA([1000.00, 3500.00],
                     [ 2.87410113E+00,  3.65639292E-03, -1.40894597E-06,
                       2.60179549E-10, -1.87727567E-14,  4.62636040E+04,
                       6.17119324E+00])),
        transport=gas_transport(geom='linear',
                                diam=3.8,
                                well_depth=144.0),
        note='LS/93')

species(name='CH2*',
        atoms='H:2 C:1',
        thermo=(NASA([200.00, 1000.00],
                     [ 4.19860411E+00, -2.36661419E-03,  8.23296220E-06,
                      -6.68815981E-09,  1.94314737E-12,  5.04968163E+04,
                      -7.69118967E-01]),
                NASA([1000.00, 3500.00],
                     [ 2.29203842E+00,  4.65588637E-03, -2.01191947E-06,
                       4.17906000E-10, -3.39716365E-14,  5.09259997E+04,
                       8.62650169E+00])),
        transport=gas_transport(geom='linear',
                                diam=3.8,
                                well_depth=144.0),
        note='LS/93')

species(name='CH3',
        atoms='H:3 C:1',
        thermo=(NASA([200.00, 1000.00],
                     [ 3.67359040E+00,  2.01095175E-03,  5.73021856E-06,
                      -6.87117425E-09,  2.54385734E-12,  1.64449988E+04,
                       1.60456433E+00]),
                NASA([1000.00, 3500.00],
                     [ 2.28571772E+00,  7.23990037E-03, -2.98714348E-06,
                       5.95684644E-10, -4.67154394E-14,  1.67755843E+04,
                       8.48007179E+00])),
        transport=gas_transport(geom='linear',
                                diam=3.8,
                                well_depth=144.0),
        note='L11/89')

species(name='CH4',
        atoms='H:4 C:1',
        thermo=(NASA([200.00, 1000.00],
                     [ 5.14987613E+00, -1.36709788E-02,  4.91800599E-05,
                      -4.84743026E-08,  1.66693956E-11, -1.02466476E+04,
                      -4.64130376E+00]),
                NASA([1000.00, 3500.00],
                     [ 7.48514950E-02,  1.33909467E-02, -5.73285809E-06,
                       1.22292535E-09, -1.01815230E-13, -9.46834459E+03,
                       1.84373180E+01])),
        transport=gas_transport(geom='nonlinear',
                                diam=3.746,
                                well_depth=141.4,
                                polar=2.6,
                                rot_relax=13.0),
        note='L8/88')

species(name='CH*',
        atoms='H:1 C:1',
        thermo=(NASA([200.00, 1000.00],
                     [ 3.47250101E+00,  4.26443626E-04, -1.95181794E-06,
                       3.51755043E-09, -1.60436174E-12,  1.04334869E+05,
                       1.44799533E+00]),
                NASA([1000.00, 3500.00],
                     [ 2.78220752E+00,  1.47246754E-03, -4.63436227E-07,
                       7.32736021E-11, -4.19705404E-15,  1.04547060E+05,
                       5.17421018E+00])),
        transport=gas_transport(geom='linear',
                                diam=2.75,
                                well_depth=80.0),
        note='TPIS79')

species(name='HCO',
        atoms='H:1 C:1 O:1',
        thermo=(NASA([200.00, 1000.00],
                     [ 4.22118584E+00, -3.24392532E-03,  1.37799446E-05,
                      -1.33144093E-08,  4.33768865E-12,  3.83956496E+03,
                       3.39437243E+00]),
                NASA([1000.00, 3500.00],
                     [ 2.77217438E+00,  4.95695526E-03, -2.48445613E-06,
                       5.89161778E-10, -5.33508711E-14,  4.01191815E+03,
                       9.79834492E+00])),
        transport=gas_transport(geom='nonlinear',
                                diam=3.59,
                                well_depth=498.0),
        note='L12/89')

species(name='CH2O',
        atoms='H:2 C:1 O:1',
        thermo=(NASA([200.00, 1000.00],
                     [ 4.79372315E+00, -9.90833369E-03,  3.73220008E-05,
                      -3.79285261E-08,  1.31772652E-11, -1.43089567E+04,
                       6.02812900E-01]),
                NASA([1000.00, 3500.00],
                     [ 1.76069008E+00,  9.20000082E-03, -4.42258813E-06,
                       1.00641212E-09, -8.83855640E-14, -1.39958323E+04,
                       1.36563230E+01])),
        transport=gas_transport(geom='nonlinear',
                                diam=3.59,
                                well_depth=498.0,
                                rot_relax=2.0),
        note='L8/88')

species(name='CH3O',
        atoms='H:3 C:1 O:1',
        thermo=(NASA([200.00, 1000.00],
                     [ 3.71180502E+00, -2.80463306E-03,  3.76550971E-05,
                      -4.73072089E-08,  1.86588420E-11,  1.29569760E+03,
                       6.57240864E+00]),
                NASA([1000.00, 6000.00],
                     [ 4.75779238E+00,  7.44142474E-03, -2.69705176E-06,
                       4.38090504E-10, -2.63537098E-14,  3.78111940E+02,
                      -1.96680028E+00])),
        transport=gas_transport(geom='nonlinear',
                                diam=3.69,
                                well_depth=417.0,
                                dipole=1.7,
                                rot_relax=2.0),
        note='IU1/03')

species(name='CH2OH',
        atoms='H:3 C:1 O:1',
        thermo=(NASA([200.00, 1000.00],
                     [ 4.47834367E+00, -1.35070310E-03,  2.78484980E-05,
                      -3.64869060E-08,  1.47907450E-11, -3.50072890E+03,
                       3.30913500E+00]),
                NASA([1000.00, 6000.00],
                     [ 5.09314370E+00,  5.94761260E-03, -2.06497460E-06,
                       3.23008173E-10, -1.88125902E-14, -4.03409640E+03,
                      -1.84691493E+00])),
        transport=gas_transport(geom='nonlinear',
                                diam=3.69,
                                well_depth=417.0,
                                dipole=1.7,
                                rot_relax=2.0),
        note='IU2/03')

species(name='CH3OH',
        atoms='H:4 C:1 O:1',
        thermo=(NASA([200.00, 1000.00],
                     [ 5.71539582E+00, -1.52309129E-02,  6.52441155E-05,
                      -7.10806889E-08,  2.61352698E-11, -2.56427656E+04,
                      -1.50409823E+00]),
                NASA([1000.00, 3500.00],
                     [ 1.78970791E+00,  1.40938292E-02, -6.36500835E-06,
                       1.38171085E-09, -1.17060220E-13, -2.53748747E+04,
                       1.45023623E+01])),
        transport=gas_transport(geom='nonlinear',
                                diam=3.626,
                                well_depth=481.8,
                                rot_relax=1.0),
        note='L8/88')

species(name='CO',
        atoms='C:1 O:1',
        thermo=(NASA([200.00, 1000.00],
                     [ 3.57953347E+00, -6.10353680E-04,  1.01681433E-06,
                       9.07005884E-10, -9.04424499E-13, -1.43440860E+04,
                       3.50840928E+00]),
                NASA([1000.00, 3500.00],
                     [ 2.71518561E+00,  2.06252743E-03, -9.98825771E-07,
                       2.30053008E-10, -2.03647716E-14, -1.41518724E+04,
                       7.81868772E+00])),
        transport=gas_transport(geom='linear',
                                diam=3.65,
                                well_depth=98.1,
                                polar=1.95,
                                rot_relax=1.8),
        note='TPIS79')

species(name='CO2',
        atoms='C:1 O:2',
        thermo=(NASA([200.00, 1000.00],
                     [ 2.35677352E+00,  8.98459677E-03, -7.12356269E-06,
                       2.45919022E-09, -1.43699548E-13, -4.83719697E+04,
                       9.90105222E+00]),
                NASA([1000.00, 3500.00],
                     [ 3.85746029E+00,  4.41437026E-03, -2.21481404E-06,
                       5.23490188E-10, -4.72084164E-14, -4.87591660E+04,
                       2.27163806E+00])),
        transport=gas_transport(geom='linear',
                                diam=3.763,
                                well_depth=244.0,
                                polar=2.65,
                                rot_relax=2.1),
        note='L7/88')

species(name='C2O',
        atoms='C:2 O:1',
        thermo=(NASA([200.00, 1000.00],
                     [ 2.86486100E+00,  1.19902160E-02, -1.83624480E-05,
                       1.57697390E-08, -5.38974520E-12,  3.37499320E+04,
                       8.88677720E+00]),
                NASA([1000.00, 6000.00],
                     [ 5.15127220E+00,  2.37267220E-03, -7.61359710E-07,
                       1.17064150E-10, -7.02578040E-15,  3.32418880E+04,
                      -2.21831350E+00])),
        transport=gas_transport(geom='linear',
                                diam=3.828,
                                well_depth=232.4,
                                rot_relax=1.0),
        note='RUS79')

species(name='C2H',
        atoms='H:1 C:2',
        thermo=(NASA([200.00, 1000.00],
                     [ 2.88965733E+00,  1.34099611E-02, -2.84769501E-05,
                       2.94791045E-08, -1.09331511E-11,  6.68393932E+04,
                       6.22296438E+00]),
                NASA([1000.00, 3500.00],
                     [ 3.16780652E+00,  4.75221902E-03, -1.83787077E-06,
                       3.04190252E-10, -1.77232770E-14,  6.71210650E+04,
                       6.63589475E+00])),
        transport=gas_transport(geom='linear',
                                diam=4.1,
                                well_depth=209.0,
                                rot_relax=2.5),
        note='L1/91')

species(name='C2H2',
        atoms='H:2 C:2',
        thermo=(NASA([200.00, 1000.00],
                     [ 8.08681094E-01,  2.33615629E-02, -3.55171815E-05,
                       2.80152437E-08, -8.50072974E-12,  2.64289807E+04,
                       1.39397051E+01]),
                NASA([1000.00, 3500.00],
                     [ 4.14756964E+00,  5.96166664E-03, -2.37294852E-06,
                       4.67412171E-10, -3.61235213E-14,  2.59359992E+04,
                      -1.23028121E+00])),
        transport=gas_transport(geom='linear',
                                diam=4.1,
                                well_depth=209.0,
                                rot_relax=2.5),
        note='L1/91')

species(name='H2CC',
        atoms='H:2 C:2',
        thermo=(NASA([200.00, 1000.00],
                     [ 3.28154830E+00,  6.97647910E-03, -2.38552440E-06,
                      -1.21044320E-09,  9.81895450E-13,  4.86217940E+04,
                       5.92039100E+00]),
                NASA([1000.00, 6000.00],
                     [ 4.27803400E+00,  4.75628040E-03, -1.63010090E-06,
                       2.54628060E-10, -1.48863790E-14,  4.83166880E+04,
                       6.40237010E-01])),
        transport=gas_transport(geom='nonlinear',
                                diam=4.1,
                                well_depth=209.0,
                                rot_relax=2.5),
        note='L12/89')

species(name='C2H3',
        atoms='H:3 C:2',
        thermo=(NASA([200.00, 1000.00],
                     [ 3.21246645E+00,  1.51479162E-03,  2.59209412E-05,
                      -3.57657847E-08,  1.47150873E-11,  3.48598468E+04,
                       8.51054025E+00]),
                NASA([1000.00, 3500.00],
                     [ 3.01672400E+00,  1.03302292E-02, -4.68082349E-06,
                       1.01763288E-09, -8.62607041E-14,  3.46128739E+04,
                       7.78732378E+00])),