#
# Generated from file chem_pecs.inp
# by ck2cti on Mon Nov 16 17:36:41 2009
#
# Transport data from file tran.dat.

units(length = "cm", time = "s", quantity = "mol", act_energy = "cal/mol")


ideal_gas(name = "gas",
      elements = " C  H  O  N ",
      species = """ H2  O2  CO  CO2  CH4  C2H6  CH2O  C2H2  C2H4  C3H6 
                   CH3OH  CH3HCO  AC3H4  C4H4  C4H6  C4H2  C3H8  BUTYNE  C2C4H8  ACROL 
                   PC3H4  C4H8  T2C4H8  C6H6  AC5H10  T2C5H10  C2C5H10  C5H813  AC6H12  CC7H14 
                   AC7H14  BC7H14  AC8H16  C6H10  AC9H18  AC10H20  NC10H22  PHC3H7  TOLUEN  PHC2H5 
                   STYREN  PHHCO  CPD  C6H5OH  PHC2H  PHCH2OH  C14H14  NAPHT  CHD13  ISOPY 
                   C4H612  BUTYN2  HOC4H6  MHD  CYC6H12  CYC5H8  CYC6H10  CYC9H18  CYC8H14  CYC7H12 
                   P2C4H513  C7H1213  C7H1216  HEX1245  MC6H6  FULVENE  C6H615  NC4H10  N2  H 
                   O  OH  HO2  H2O  H2O2  HCO  CH3  SCH2  C2H5  CH2 
                   CH  CH3O  CH2OH  C3H3  CH2CO  C2H3  C2H4O2H  CH2HCO  C2H  C2H4O 
                   HCCO  HCCOH  IC4H3  C2  CHOCHO  CHOCO  C2H3O  CH3CO  C2H2OH  C2O 
                   SC3H5  C3H3O  IC3H7  NC3H7  AC3H5  TC3H5  C3H6O  C3H5O  C3H4O2H  C3H4O 
                   C2H3CO  IC4H7  C3H4OH  C3H2  NC4H3  MEALL  SC4H9  PC4H9  NC4H5  IC4H5 
                   H2C4O  C4H  OC4H6  C4H5O  C4H6O2H  AC5H11  BC5H11  CC5H11  ETHCO  C5H913 
                   C5H924  AC6H13  BC6H13  C6H1113  AC7H15  BC7H15  CC7H15  DC7H15  C7H1313  C7H1324 
                   C7H1335  AC8H17  BC8H17  CC8H17  DC8H17  C8H1513  AC9H19  BC9H19  CC9H19  DC9H19 
                   EC9H19  AC9H17  AC10H21  BC10H21  CC10H21  DC10H21  EC10H21  AC10H19  C8H1514  C8H1515 
                   C8H1516  C8H1517  C8H1518  C4H73  C5H915  C6H1116  APHC3H6  BPHC3H6  CPHC3H6  PHCH2 
                   BPHC2H4  C6H5  APHC2H4  C6H5O  C5H5  C5H4OH  C5H4O  PHCO  C5H5O13  C6H9 
                   C6H9CY2  C6H7C  C5H7  CYC5H7  CYC6H11  AC9H17C  BC9H17C  CC9H17C  DC9H17C  EC9H17C 
                   FC9H17C  GC9H17C  C7H1314  C7H1331  C5H911  AC8H15C  AC7H13C  P2C4H614  CC6H13  C6H1112 
                   C6H1115  PHCH2O  BPHPROPY  C2H5CO  CH3O2  CH3O2H  C2H5O2  C2H5O2H  C2H5O """,
      reactions = "all",
      transport = "Mix",
      initial_state = state(temperature = 300.0,
                        pressure = OneAtm)    )



#-------------------------------------------------------------------------------
#  Species data 
#-------------------------------------------------------------------------------

species(name = "H2",
    atoms = " H:2 ",
    thermo = (
       NASA( [  300.00,  1000.00], [  3.298120000E+00,   8.249400000E-04, 
               -8.143000000E-07,  -9.475000000E-11,   4.134900000E-13,
               -1.012500000E+03,  -3.294000000E+00] ),
       NASA( [ 1000.00,  5000.00], [  2.991420000E+00,   7.000600000E-04, 
               -5.634000000E-08,  -9.230000000E-12,   1.580000000E-15,
               -8.350000000E+02,  -1.355000000E+00] )
             ),
    transport = gas_transport(
                     geom = "linear",
                     diam = 2.92,
                     well_depth = 38,
                     polar = 0.79,
                     rot_relax = 280)
       )

species(name = "O2",
    atoms = " O:2 ",
    thermo = (
       NASA( [  300.00,  1000.00], [  3.212940000E+00,   1.127490000E-03, 
               -5.756200000E-07,   1.313880000E-09,  -8.768600000E-13,
               -1.005200000E+03,   6.035000000E+00] ),
       NASA( [ 1000.00,  5000.00], [  3.697580000E+00,   6.135200000E-04, 
               -1.258800000E-07,   1.775000000E-11,  -1.140000000E-15,
               -1.233900000E+03,   3.189000000E+00] )
             ),
    transport = gas_transport(
                     geom = "linear",
                     diam = 3.458,
                     well_depth = 107.4,
                     polar = 1.6,
                     rot_relax = 3.8)
       )

species(name = "CO",
    atoms = " C:1  O:1 ",
    thermo = (
       NASA( [  300.00,  1000.00], [  3.262450000E+00,   1.511940000E-03, 
               -3.881750000E-06,   5.581940000E-09,  -2.474950000E-12,
               -1.431050000E+04,   4.849000000E+00] ),
       NASA( [ 1000.00,  5000.00], [  3.025080000E+00,   1.442690000E-03, 
               -5.630800000E-07,   1.018600000E-10,  -6.910000000E-15,
               -1.426830000E+04,   6.108000000E+00] )
             ),
    transport = gas_transport(
                     geom = "linear",
                     diam = 3.65,
                     well_depth = 98.1,
                     polar = 1.95,
                     rot_relax = 1.8)
       )

species(name = "CO2",
    atoms = " C:1  O:2 ",
    thermo = (
       NASA( [  300.00,  1000.00], [  2.275720000E+00,   9.922070000E-03, 
               -1.040911000E-05,   6.866690000E-09,  -2.117280000E-12,
               -4.837310000E+04,   1.018800000E+01] ),
       NASA( [ 1000.00,  5000.00], [  4.453620000E+00,   3.140170000E-03, 
               -1.278410000E-06,   2.394000000E-10,  -1.669000000E-14,
               -4.896700000E+04,  -9.550000000E-01] )
             ),
    transport = gas_transport(
                     geom = "linear",
                     diam = 3.763,
                     well_depth = 244,
                     polar = 2.65,
                     rot_relax = 2.1)
       )

species(name = "CH4",
    atoms = " C:1  H:4 ",
    thermo = (
       NASA( [  300.00,  1000.00], [  7.787400000E-01,   1.747668000E-02, 
               -2.783409000E-05,   3.049708000E-08,  -1.223931000E-11,
               -9.825200000E+03,   1.372200000E+01] ),
       NASA( [ 1000.00,  5000.00], [  1.683480000E+00,   1.023724000E-02, 
               -3.875130000E-06,   6.785600000E-10,  -4.503000000E-14,
               -1.008080000E+04,   9.623000000E+00] )
             ),
    transport = gas_transport(
                     geom = "nonlinear",
                     diam = 3.746,
                     well_depth = 141.4,
                     polar = 2.6,
                     rot_relax = 13)
       )

species(name = "C2H6",
    atoms = " C:2  H:6 ",
    thermo = (
       NASA( [  300.00,  1000.00], [  1.462540000E+00,   1.549467000E-02, 
                5.780510000E-06,  -1.257832000E-08,   4.586270000E-12,
               -1.123920000E+04,   1.443200000E+01] ),
       NASA( [ 1000.00,  5000.00], [  4.825940000E+00,   1.384043000E-02, 
               -4.557260000E-06,   6.725000000E-10,  -3.598000000E-14,
               -1.271780000E+04,  -5.240000000E+00] )
             ),
    transport = gas_transport(
                     geom = "nonlinear",
                     diam = 4.302,
                     well_depth = 252.3,
                     rot_relax = 1.5)
       )

species(name = "CH2O",
    atoms = " C:1  H:2  O:1 ",
    thermo = (
       NASA( [  300.00,  1000.00], [  1.652730000E+00,   1.263144000E-02, 
               -1.888168000E-05,   2.050031000E-08,  -8.413240000E-12,
               -1.486540000E+04,   1.378500000E+01] ),
       NASA( [ 1000.00,  5000.00], [  2.995610000E+00,   6.681320000E-03, 
               -2.628950000E-06,   4.737200000E-10,  -3.213000000E-14,
               -1.532040000E+04,   6.913000000E+00] )
             ),
    transport = gas_transport(
                     geom = "nonlinear",
                     diam = 3.59,
                     well_depth = 498,
                     rot_relax = 2)
       )

species(name = "C2H2",
    atoms = " C:2  H:2 ",
    thermo = (
       NASA( [  300.00,  1000.00], [  2.013560000E+00,   1.519045000E-02, 
               -1.616319000E-05,   9.078990000E-09,  -1.912750000E-12,
                2.612440000E+04,   8.805000000E+00] ),
       NASA( [ 1000.00,  5000.00], [  4.436770000E+00,   5.376040000E-03, 
               -1.912820000E-06,   3.286400000E-10,  -2.157000000E-14,
                2.566770000E+04,  -2.800000000E+00] )
             ),
    transport = gas_transport(
                     geom = "linear",
                     diam = 4.1,
                     well_depth = 209,
                     rot_relax = 2.5)
       )

species(name = "C2H4",
    atoms = " C:2  H:4 ",
    thermo = (
       NASA( [  300.00,  1000.00], [ -8.614900000E-01,   2.796163000E-02, 
               -3.388677000E-05,   2.785152000E-08,  -9.737880000E-12,
                5.573000000E+03,   2.421100000E+01] ),
       NASA( [ 1000.00,  5000.00], [  3.528420000E+00,   1.148518000E-02, 
               -4.418390000E-06,   7.844600000E-10,  -5.267000000E-14,
                4.428300000E+03,   2.230000000E+00] )
             ),
    transport = gas_transport(
                     geom = "nonlinear",
                     diam = 3.971,
                     well_depth = 280.8,
                     rot_relax = 1.5)
       )

species(name = "C3H6",
    atoms = " C:3  H:6 ",
    thermo = (
       NASA( [  300.00,  1000.00], [  1.457515700E+00,   2.114226300E-02, 
                4.046801200E-06,  -1.631900300E-08,   7.047515300E-12,
                1.074020800E+03,   1.739946000E+01] ),
       NASA( [ 1000.00,  5000.00], [  6.721397400E+00,   1.493175700E-02, 
               -4.965235300E-06,   7.251075300E-10,  -3.800147600E-14,
               -9.245314900E+02,  -1.215561700E+01] )
             ),
    transport = gas_transport(
                     geom = "nonlinear",
                     diam = 4.982,
                     well_depth = 266.8,
                     rot_relax = 1)
       )

species(name = "CH3OH",
    atoms = " C:1  H:4  O:1 ",
    thermo = (
       NASA( [  300.00,  1000.00], [  2.660120000E+00,   7.341510000E-03, 
                7.170050000E-06,  -8.793190000E-09,   2.390570000E-12,
               -2.535350000E+04,   1.123300000E+01] ),
       NASA( [ 1000.00,  5000.00], [  4.029060000E+00,   9.376590000E-03, 
               -3.050250000E-06,   4.358800000E-10,  -2.225000000E-14,
               -2.615790000E+04,   2.378000000E+00] )
             ),
    transport = gas_transport(
                     geom = "nonlinear",
                     diam = 3.626,
                     well_depth = 481.8,
                     rot_relax = 1)
       )

species(name = "CH3HCO",
    atoms = " C:2  H:4  O:1 ",
    thermo = (
       NASA( [  300.00,  1000.00], [  2.696911000E+00,   1.233428000E-02, 
                5.674645000E-06,  -1.087070000E-08,   3.764825000E-12,
               -2.140314000E+04,   1.253048000E+01] ),
       NASA( [ 1000.00,  5000.00], [  4.255786000E+00,   1.348603000E-02, 
               -4.918342000E-06,   8.251504000E-10,  -5.269434000E-14,
               -2.216735000E+04,   2.962658000E+00] )
             ),
    transport = gas_transport(
                     geom = "nonlinear",
                     diam = 3.97,
                     well_depth = 436,
                     rot_relax = 2)
       )

species(name = "AC3H4",
    atoms = " C:3  H:4 ",
    thermo = (
       NASA( [  300.00,  1000.00], [  4.545321000E+00,   4.532069000E-04, 
                4.164247000E-05,  -5.255023000E-08,   2.012932000E-11,
                2.129959000E+04,   1.774389000E+00] ),
       NASA( [ 1000.00,  5000.00], [  6.321808000E+00,   1.175513000E-02, 
               -4.654671000E-06,   8.571352000E-10,  -5.932754000E-14,
                1.999041000E+04,  -1.140580000E+01] )
             ),
    transport = gas_transport(
                     geom = "linear",
                     diam = 4.76,
                     well_depth = 252,
                     rot_relax = 1)
       )

species(name = "C4H4",
    atoms = " C:4  H:4 ",
    thermo = (
       NASA( [  300.00,  1000.00], [  3.233893000E+00,   1.865634000E-02, 
                1.270320500E-06,  -9.410096000E-09,   2.956110000E-12,
                3.301097000E+04,   9.922676000E+00] ),
       NASA( [ 1000.00,  4000.00], [  1.069777300E+01,   6.982014000E-03, 
               -6.567747000E-07,  -3.884517000E-10,   7.200946000E-14,
                3.034803000E+04,  -3.128430000E+01] )
             ),
    transport = gas_transport(
                     geom = "nonlinear",
                     diam = 4.92,
                     well_depth = 243,
                     rot_relax = 1)
       )

species(name = "C4H6",
    atoms = " C:4  H:6 ",
    thermo = (
       NASA( [  300.00,  1000.00], [  1.110787000E+01,  -6.302794000E-03, 
                5.361920000E-05,  -5.914519000E-08,   2.123863000E-11,
                9.686877000E+03,  -2.992869000E+01] ),
       NASA( [ 1000.00,  3000.00], [  9.843862000E+00,   1.544517000E-02, 
               -5.717200000E-06,   1.014516000E-09,  -6.865593000E-14,
                9.077228000E+03,  -2.800343000E+01] )
             ),
    transport = gas_transport(
                     geom = "nonlinear",
                     diam = 5.18,
                     well_depth = 357,
                     rot_relax = 1)
       )

species(name = "C4H2",
    atoms = " C:4  H:2 ",
    thermo = (
       NASA( [  300.00,  1000.00], [  4.005191000E+00,   1.981000000E-02, 
               -9.865877000E-06,  -6.635158000E-09,   6.077413000E-12,
                5.424065000E+04,   1.845736000E+00] ),
       NASA( [ 1000.00,  5000.00], [  9.031407000E+00,   6.047252000E-03, 
               -1.948788000E-06,   2.754863000E-10,  -1.385608000E-14,
                5.294735000E+04,  -2.385067000E+01] )
             ),
    transport = gas_transport(
                     geom = "linear",
                     diam = 5.18,
                     well_depth = 357,
                     rot_relax = 1)
       )

species(name = "C3H8",
    atoms = " C:3  H:8 ",
    thermo = (
       NASA( [  300.00,  1000.00], [  9.335538100E-01,   2.642457900E-02, 
                6.105972700E-06,  -2.197749900E-08,   9.514925300E-12,
               -1.395852000E+04,   1.920169100E+01] ),
       NASA( [ 1000.00,  5000.00], [  7.534136800E+00,   1.887223900E-02, 
               -6.271849100E-06,   9.147564900E-10,  -4.783806900E-14,
               -1.646751600E+04,  -1.789234900E+01] )
             ),
    transport = gas_transport(
                     geom = "nonlinear",
                     diam = 4.982,
                     well_depth = 266.8,
                     rot_relax = 1)
       )

species(name = "BUTYNE",
    atoms = " C:4  H:6 ",
    thermo = (
       NASA( [  300.00,  1000.00], [ -5.798403000E-01,   4.666574000E-02, 
               -4.880373000E-05,   3.108893000E-08,  -8.350969000E-12,
                1.838166000E+04,   2.626408000E+01] ),
       NASA( [ 1000.00,  5000.00], [  8.038707000E+00,   1.636149000E-02, 
               -5.195059000E-06,   8.726184000E-10,  -5.761724000E-14,
                1.627442000E+04,  -1.677205000E+01] )
             ),
    transport = gas_transport(
                     geom = "nonlinear",
                     diam = 4.92,
                     well_depth = 243,
                     rot_relax = 1)
       )

species(name = "C2C4H8",
    atoms = " C:4  H:8 ",
    thermo = (
       NASA( [  300.00,  1000.00], [  2.816120000E+00,   2.148364000E-02, 
                2.384934000E-05,  -4.245403000E-08,   1.755051000E-11,
               -3.559309000E+03,   1.249396000E+01] ),
       NASA( [ 1000.00,  5000.00], [  7.830682000E+00,   2.223580000E-02, 
               -8.172415000E-06,   1.449705000E-09,  -9.819743000E-14,
               -5.722229000E+03,  -1.710911000E+01] )
             ),
    transport = gas_transport(
                     geom = "nonlinear",
                     diam = 5.349,
                     well_depth = 412.3,
                     rot_relax = 1)
       )

species(name = "ACROL",
    atoms = " C:3  H:4  O:1 ",
    thermo = (
       NASA( [  300.00,  1000.00], [  6.017816000E+00,  -3.897637000E-03, 
                5.468233000E-05,  -6.508577000E-08,   2.436290000E-11,
               -1.106020000E+04,   6.499036000E-01] ),
       NASA( [ 1000.00,  5000.00], [  6.880341000E+00,   1.365508000E-02, 
               -5.373442000E-06,   9.856839000E-10,  -6.804741000E-14,
               -1.231217000E+04,  -8.749131000E+00] )
             ),
    transport = gas_transport(
                     geom = "nonlinear",
                     diam = 4.76,
                     well_depth = 252,
                     rot_relax = 1)
       )

species(name = "PC3H4",
    atoms = " C:3  H:4 ",
    thermo = (
       NASA( [  300.00,  1000.00], [  6.110199000E+00,  -6.741639000E-03, 
                5.321618000E-05,  -6.098872000E-08,   2.248793000E-11,
                2.040653000E+04,  -4.858232000E+00] ),
       NASA( [ 1000.00,  5000.00], [  6.089231000E+00,   1.186640000E-02, 
               -4.668532000E-06,   8.558878000E-10,  -5.905525000E-14,
                1.946662000E+04,  -9.357201000E+00] )
             ),
    transport = gas_transport(
                     geom = "linear",
                     diam = 4.76,
                     well_depth = 252,
                     rot_relax = 1)
       )

species(name = "C4H8",
    atoms = " C:4  H:8 ",
    thermo = (
       NASA( [  300.00,  1000.00], [  1.181138000E+00,   3.085338000E-02, 
                5.086524000E-06,  -2.465488000E-08,   1.111019200E-11,
               -1.790400000E+03,   2.106247000E+01] ),
       NASA( [ 1000.00,  5000.00], [  2.053584000E+00,   3.435050000E-02, 
               -1.588319600E-05,   3.308966000E-09,  -2.536104000E-13,
               -2.139723000E+03,   1.554320100E+01] )
             ),
    transport = gas_transport(
                     geom = "nonlinear",
                     diam = 5.176,
                     well_depth = 357,
                     rot_relax = 1)
       )

species(name = "T2C4H8",
    atoms = " C:4  H:8 ",
    thermo = (
       NASA( [  300.00,  1000.00], [  1.259425200E+00,   2.780842400E-02, 
                8.701393200E-06,  -2.440220500E-08,   9.897771000E-12,
               -2.964774200E+03,   2.050112900E+01] ),
       NASA( [ 1000.00,  5000.00], [  8.279767600E-01,   3.586453900E-02, 
               -1.663449800E-05,   3.473275900E-09,  -2.665739800E-13,
               -3.052103300E+03,   2.134254500E+01] )
             ),
    transport = gas_transport(
                     geom = "nonlinear",
                     diam = 5.176,
                     well_depth = 357,
                     rot_relax = 1)
       )

species(name = "C6H6",
    atoms = " C:6  H:6 ",
    thermo = (
       NASA( [  300.00,  1000.00], [ -3.138012000E+00,   4.723103000E-02, 
               -2.962207000E-06,  -3.262819000E-08,   1.718691000E-11,
                8.890031000E+03,   3.657573000E+01] ),
       NASA( [ 1000.00,  5000.00], [  1.291074000E+01,   1.723296000E-02, 
               -5.024210000E-06,   5.893497000E-10,  -1.947521000E-14,
                3.664511000E+03,  -5.002699000E+01] )
             ),
    transport = gas_transport(
                     geom = "nonlinear",
                     diam = 5.176,
                     well_depth = 357,
                     rot_relax = 1)
       )

species(name = "AC5H10",
    atoms = " C:5  H:10 ",
    thermo = (
       NASA( [  300.00,  1000.00], [  7.436035000E-01,   4.357902000E-02, 
               -4.406364000E-07,  -2.855380000E-08,   1.437091000E-11,
               -4.696150000E+03,   2.449738000E+01] ),
       NASA( [ 1000.00,  5000.00], [  1.090584000E+01,   2.720897000E-02, 
               -1.009468000E-05,   1.801495000E-09,  -1.225304000E-13,
               -8.145486000E+03,  -3.099887000E+01] )
             ),
    transport = gas_transport(
                     geom = "nonlinear",
                     diam = 5.176,
                     well_depth = 357,
                     rot_relax = 1)
       )

species(name = "T2C5H10",
    atoms = " C:5  H:10 ",
    thermo = (
       NASA( [  300.00,  1000.00], [ -2.983671000E-01,   4.426350000E-02, 
               -9.804526000E-08,  -2.902011000E-08,   1.452038000E-11,
               -5.624354000E+03,   2.956924000E+01] ),
       NASA( [ 1000.00,  5000.00], [  9.811942000E+00,   2.823063000E-02, 
               -1.039882000E-05,   1.849113000E-09,  -1.255052000E-13,
               -9.072767000E+03,  -2.571531000E+01] )
             ),
    transport = gas_transport(
                     geom = "nonlinear",
                     diam = 5.176,
                     well_depth = 357,
                     rot_relax = 1)
       )

species(name = "C2C5H10",
    atoms = " C:5  H:10 ",
    thermo = (
       NASA( [  300.00,  1000.00], [ -2.977232000E-01,   4.425884000E-02, 
               -8.626899000E-08,  -2.903272000E-08,   1.452523000E-11,
               -5.020549000E+03,   3.027105000E+01] ),
       NASA( [ 1000.00,  5000.00], [  9.811941000E+00,   2.823060000E-02, 
               -1.039880000E-05,   1.849101000E-09,  -1.255048000E-13,
               -8.468902000E+03,  -2.501080000E+01] )
             ),
    transport = gas_transport(
                     geom = "nonlinear",
                     diam = 5.176,
                     well_depth = 357,
                     rot_relax = 1)
       )

species(name = "C5H813",
    atoms = " C:5  H:8 ",
    thermo = (
       NASA( [  300.00,  1000.00], [ -1.754487000E+00,   5.993251000E-02, 
               -4.986992000E-05,   2.106605000E-08,  -3.002202000E-12,
                7.395255000E+03,   3.253245000E+01] ),
       NASA( [ 1000.00,  5000.00], [  1.111107000E+01,   2.190444000E-02, 
               -7.957633000E-06,   1.409658000E-09,  -9.558317000E-14,
                3.905742000E+03,  -3.344226000E+01] )
             ),
    transport = gas_transport(
                     geom = "nonlinear",
                     diam = 5.29,
                     well_depth = 375.6,
                     rot_relax = 1)
       )

species(name = "AC6H12",
    atoms = " C:6  H:12 ",
    thermo = (
       NASA( [  300.00,  1000.00], [  1.038569000E+00,   5.186722000E-02, 
                1.611212000E-06,  -3.690396000E-08,   1.827824000E-11,
               -7.627013000E+03,   2.498308000E+01] ),
       NASA( [ 1000.00,  5000.00], [  1.332061000E+01,   3.272585000E-02, 
               -1.218510000E-05,   2.178169000E-09,  -1.482468000E-13,
               -1.182484000E+04,  -4.223949000E+01] )
             ),
    transport = gas_transport(
                     geom = "nonlinear",
                     diam = 5.73,
                     well_depth = 414.9,
                     rot_relax = 1)
       )

species(name = "CC7H14",
    atoms = " C:7  H:14 ",
    thermo = (
       NASA( [  300.00,  1000.00], [ -2.249192000E+00,   7.844856000E-02, 
               -4.164927000E-05,   5.900725000E-09,   1.545279000E-12,
               -1.094604000E+04,   4.148697000E+01] ),
       NASA( [ 1000.00,  5000.00], [  1.690929000E+01,   3.484942000E-02, 
               -1.141094000E-05,   1.774971000E-09,  -1.076043000E-13,
               -1.702238000E+04,  -6.058667000E+01] )
             ),
    transport = gas_transport(
                     geom = "nonlinear",
                     diam = 6.02,
                     well_depth = 448,
                     rot_relax = 1)
       )

species(name = "AC7H14",
    atoms = " C:7  H:14 ",
    thermo = (
       NASA( [  300.00,  1000.00], [ -6.907029000E-01,   7.598930000E-02, 
               -4.030187000E-05,   5.821771000E-09,   1.425631000E-12,
               -1.038867000E+04,   3.381096000E+01] ),
       NASA( [ 1000.00,  5000.00], [  1.798446000E+01,   3.359190000E-02, 
               -1.089537000E-05,   1.682755000E-09,  -1.014784000E-13,
               -1.632712000E+04,  -6.573688000E+01] )
             ),
    transport = gas_transport(
                     geom = "nonlinear",
                     diam = 6.02,
                     well_depth = 448,
                     rot_relax = 1)
       )

species(name = "BC7H14",
    atoms = " C:7  H:14 ",
    thermo = (
       NASA( [  300.00,  1000.00], [ -1.126091000E+00,   7.464725000E-02, 
               -3.855887000E-05,   6.083466000E-09,   9.063380000E-13,
               -1.110055000E+04,   3.619235000E+01] ),
       NASA( [ 1000.00,  5000.00], [  1.700120000E+01,   3.460801000E-02, 
               -1.128062000E-05,   1.747555000E-09,  -1.055640000E-13,
               -1.701461000E+04,  -6.092814000E+01] )
             ),
    transport = gas_transport(
                     geom = "nonlinear",
                     diam = 6.02,
                     well_depth = 448,
                     rot_relax = 1)
       )

species(name = "AC8H16",
    atoms = " C:8  H:16 ",
    thermo = (
       NASA( [  300.00,  1000.00], [  2.607547800E+00,   6.428253700E-02, 
                9.250232300E-06,  -5.104670800E-08,   2.331655700E-11,
               -1.359752700E+04,   2.158465600E+01] ),
       NASA( [ 1000.00,  5000.00], [  2.083128400E+01,   3.829451300E-02, 
               -1.241787000E-05,   1.795758900E-09,  -9.370591300E-14,
               -2.013314100E+04,  -7.924005100E+01] )
             ),
    transport = gas_transport(
                     geom = "nonlinear",
                     diam = 6.28,
                     well_depth = 482.8,
                     rot_relax = 1)
       )

species(name = "C6H10",
    atoms = " C:6  H:10 ",
    thermo = (
       NASA( [  300.00,  1000.00], [ -9.498827000E-01,   6.072520000E-02, 
               -3.041458000E-05,  -3.583728000E-09,   6.436967000E-12,
                7.994762000E+03,   3.357439000E+01] ),
       NASA( [ 1000.00,  5000.00], [  1.265694000E+01,   2.823612000E-02, 
               -1.040625000E-05,   1.853092000E-09,  -1.259218000E-13,
                3.916401000E+03,  -3.810486000E+01] )
             ),
    transport = gas_transport(
                     geom = "nonlinear",
                     diam = 5.349,
                     well_depth = 412.3,
                     rot_relax = 1)
       )

species(name = "AC9H18",
    atoms = " C:9  H:18 ",
    thermo = (
       NASA( [  298.15,  1000.00], [ -3.420200400E+00,   1.195898700E-01, 
               -1.107565400E-04,   7.355066900E-08,  -2.428081300E-11,
               -1.590743000E+04,   4.822598000E+01] ),
       NASA( [ 1000.00,  5000.00], [  1.976824900E+01,   5.113384400E-02, 
               -1.934612100E-05,   3.344095600E-09,  -2.170878000E-13,
               -2.259911100E+04,  -7.181708400E+01] )
             ),
    transport = gas_transport(
                     geom = "nonlinear",
                     diam = 6.64,
                     well_depth = 500.8,
                     rot_relax = 1)
       )

species(name = "AC10H20",
    atoms = " C:10  H:20 ",
    thermo = (
       NASA( [  300.00,  1000.00], [ -3.749713600E+00,   1.328555600E-01, 
               -1.224718200E-04,   8.097429900E-08,  -2.671841800E-11,
               -1.878940300E+04,   5.135061900E+01] ),
       NASA( [ 1000.00,  5000.00], [  2.217641800E+01,   5.669059300E-02, 
               -2.144239900E-05,   3.705828300E-09,  -2.405337500E-13,
               -2.628798400E+04,  -8.295381000E+01] )
             ),
    transport = gas_transport(
                     geom = "nonlinear",
                     diam = 6.28,
                     well_depth = 482.8,
                     rot_relax = 1)
       )

species(name = "NC10H22",
    atoms = " C:10  H:22 ",
    thermo = (
       NASA( [  300.00,  1000.00], [ -3.632631500E+00,   1.379738500E-01, 
               -1.260412500E-04,   8.487645200E-08,  -2.864111600E-11,
               -3.420014400E+04,   5.013779600E+01] ),
       NASA( [ 1000.00,  5000.00], [  2.257621100E+01,   6.146110300E-02, 
               -2.326216200E-05,   4.021130400E-09,  -2.609846000E-13,
               -4.187450800E+04,  -8.592653300E+01] )
             ),
    transport = gas_transport(
                     geom = "nonlinear",
                     diam = 6.87,
                     well_depth = 523.6,
                     rot_relax = 1)
       )

species(name = "PHC3H7",
    atoms = " C:9  H:12 ",
    thermo = (
       NASA( [  300.00,  1000.00], [ -4.238300000E+00,   9.006415000E-02, 
               -5.331408000E-05,   9.883891000E-09,   1.259661000E-12,
               -1.326863000E+03,   4.699421000E+01] ),
       NASA( [ 1000.00,  3000.00], [  1.956456000E+01,   3.371875000E-02, 
               -1.127997000E-05,   1.780649000E-09,  -1.090086000E-13,
               -8.668846000E+03,  -7.905852000E+01] )
             ),
    transport = gas_transport(
                     geom = "nonlinear",
                     diam = 6.28,
                     well_depth = 482.8,
                     rot_relax = 1)
       )

species(name = "TOLUEN",
    atoms = " C:7  H:8 ",
    thermo = (
       NASA( [  200.00,  1000.00], [  1.615266300E+00,   2.109943800E-02, 
                8.536601800E-05,  -1.326106600E-07,   5.595660400E-11,
                4.075630000E+03,   2.028221000E+01] ),
       NASA( [ 1000.00,  6000.00], [  1.294003400E+01,   2.669128700E-02, 
               -9.683850500E-06,   1.573862900E-09,  -9.466360100E-14,
               -6.976490800E+02,  -4.672878500E+01] )
             ),
    transport = gas_transport(
                     geom = "nonlinear",
                     diam = 5.176,
                     well_depth = 357,
                     rot_relax = 1)
       )

species(name = "PHC2H5",
    atoms = " C:8  H:10 ",
    thermo = (
       NASA( [  300.00,  1000.00], [ -7.266845000E+00,   1.003089000E-01, 
               -9.651715000E-05,   5.565908000E-08,  -1.453370000E-11,
                1.987290000E+03,   5.856430000E+01] ),
       NASA( [ 1000.00,  3000.00], [  3.878978000E+00,   5.810059000E-02, 
               -3.196380000E-05,   8.448993000E-09,  -8.694825000E-13,
               -5.024922000E+02,   3.823936000E+00] )
             ),
    transport = gas_transport(
                     geom = "nonlinear",
                     diam = 5.176,
                     well_depth = 357,
                     rot_relax = 1)
       )

species(name = "STYREN",
    atoms = " C:8  H:8 ",
    thermo = (
       NASA( [  300.00,  1000.00], [ -4.726091000E+00,   8.114510000E-02, 
               -5.870096000E-05,   1.433087000E-08,   2.028527000E-12,
                1.602763000E+04,   4.663407000E+01] ),