#
# Generated from file gri30.inp
# by ck2cti on Mon Aug 25 09:52:57 2003
#
# Transport data from file ../transport/gri30_tran.dat.

units(length = "cm", time = "s", quantity = "mol", act_energy = "cal/mol")


ideal_gas(name = "gri30",
      elements = " O  H  C  N  Ar ",
      species = """ H2  H  O  O2  OH  H2O  HO2  H2O2  C  CH 
                   CH2  CH2(S)  CH3  CH4  CO  CO2  HCO  CH2O  CH2OH  CH3O 
                   CH3OH  C2H  C2H2  C2H3  C2H4  C2H5  C2H6  HCCO  CH2CO  HCCOH 
                   N  NH  NH2  NH3  NNH  NO  NO2  N2O  HNO  CN 
                   HCN  H2CN  HCNN  HCNO  HOCN  HNCO  NCO  N2  AR  C3H7 
                   C3H8  CH2CHO  CH3CHO C12H24""",
      reactions = "all",
      initial_state = state(temperature = 300.0,
                        pressure = OneAtm)    )

ideal_gas(name = "gri30_mix",
      elements = " O  H  C  N  Ar ",
      species = """ H2  H  O  O2  OH  H2O  HO2  H2O2  C  CH 
                   CH2  CH2(S)  CH3  CH4  CO  CO2  HCO  CH2O  CH2OH  CH3O 
                   CH3OH  C2H  C2H2  C2H3  C2H4  C2H5  C2H6  HCCO  CH2CO  HCCOH 
                   N  NH  NH2  NH3  NNH  NO  NO2  N2O  HNO  CN 
                   HCN  H2CN  HCNN  HCNO  HOCN  HNCO  NCO  N2  AR  C3H7 
                   C3H8  CH2CHO  CH3CHO C12H24""",
      reactions = "all",
      transport = "Mix",
      initial_state = state(temperature = 300.0,
                        pressure = OneAtm)    )


ideal_gas(name = "gri30_multi",
      elements = " O  H  C  N  Ar ",
      species = """ H2  H  O  O2  OH  H2O  HO2  H2O2  C  CH 
                   CH2  CH2(S)  CH3  CH4  CO  CO2  HCO  CH2O  CH2OH  CH3O 
                   CH3OH  C2H  C2H2  C2H3  C2H4  C2H5  C2H6  HCCO  CH2CO  HCCOH 
                   N  NH  NH2  NH3  NNH  NO  NO2  N2O  HNO  CN 
                   HCN  H2CN  HCNN  HCNO  HOCN  HNCO  NCO  N2  AR  C3H7 
                   C3H8  CH2CHO  CH3CHO C12H24""",
      reactions = "all",
      transport = "Multi",
      initial_state = state(temperature = 300.0,
                        pressure = OneAtm)    )



#-------------------------------------------------------------------------------
#  Species data 
#-------------------------------------------------------------------------------



species(name = "H2",
    atoms = " H:2 ",
    thermo = (
       NASA( [  200.00,  1000.00], [  2.344331120E+00,   7.980520750E-03, 
               -1.947815100E-05,   2.015720940E-08,  -7.376117610E-12,
               -9.179351730E+02,   6.830102380E-01] ),
       NASA( [ 1000.00,  6000.00], [  2.932865790E+00,   8.266079670E-04, 
               -1.464023350E-07,   1.541003590E-11,  -6.888044320E-16,
               -8.130655970E+02,  -1.024328870E+00] )
             ),
    transport = gas_transport(
                     geom = "linear",
                     diam =     2.92,
                     well_depth =    38.00,
                     polar =     0.79,
                     rot_relax =   280.00),
    note = "TPIS78"
       )

species(name = "H",
    atoms = " H:1 ",
    thermo = (
       NASA( [  200.00,  1000.00], [  2.500000000E+00,   0.000000000E+00, 
                0.000000000E+00,   0.000000000E+00,   0.000000000E+00,
                2.547365990E+04,  -4.466828530E-01] ),
       NASA( [ 1000.00,  6000.00], [  2.500002860E+00,  -5.653342140E-09, 
                3.632517230E-12,  -9.199497200E-16,   7.952607460E-20,
                2.547365890E+04,  -4.466984940E-01] )
             ),
    transport = gas_transport(
                     geom = "atom",
                     diam =     2.05,
                     well_depth =   145.00),
    note = "L 7/88"
       )

species(name = "O",
    atoms = " O:1 ",
    thermo = (
       NASA( [  200.00,  1000.00], [  3.168267100E+00,  -3.279318840E-03, 
                6.643063960E-06,  -6.128066240E-09,   2.112659710E-12,
                2.912225920E+04,   2.051933460E+00] ),
       NASA( [ 1000.00,  6000.00], [  2.543636970E+00,  -2.731624860E-05, 
               -4.190295200E-09,   4.954818450E-12,  -4.795536940E-16,
                2.922601200E+04,   4.922294570E+00] )
             ),
    transport = gas_transport(
                     geom = "atom",
                     diam =     2.75,
                     well_depth =    80.00),
    note = "L 1/90"
       )

species(name = "O2",
    atoms = " O:2 ",
    thermo = (
       NASA( [  200.00,  1000.00], [  3.782456360E+00,  -2.996734150E-03, 
                9.847302000E-06,  -9.681295080E-09,   3.243728360E-12,
               -1.063943560E+03,   3.657675730E+00] ),
       NASA( [ 1000.00,  6000.00], [  3.660960830E+00,   6.563655230E-04, 
               -1.411494850E-07,   2.057976580E-11,  -1.299132480E-15,
               -1.215977250E+03,   3.415361840E+00] )
             ),
    transport = gas_transport(
                     geom = "linear",
                     diam =     3.46,
                     well_depth =   107.40,
                     polar =     1.60,
                     rot_relax =     3.80),
    note = "TPIS89"
       )

species(name = "OH",
    atoms = " O:1  H:1 ",
    thermo = (
       NASA( [  200.00,  1000.00], [  3.992015430E+00,  -2.401317520E-03, 
                4.617938410E-06,  -3.881133330E-09,   1.364114700E-12,
                3.615080560E+03,  -1.039254580E-01] ),
       NASA( [ 1000.00,  6000.00], [  2.838646070E+00,   1.107255860E-03, 
               -2.939149780E-07,   4.205242470E-11,  -2.421690920E-15,
                3.943958520E+03,   5.844526620E+00] )
             ),
    transport = gas_transport(
                     geom = "linear",
                     diam =     2.75,
                     well_depth =    80.00),
    note = "RUS 78"
       )

species(name = "H2O",
    atoms = " H:2  O:1 ",
    thermo = (
       NASA( [  200.00,  1000.00], [  4.198640560E+00,  -2.036434100E-03, 
                6.520402110E-06,  -5.487970620E-09,   1.771978170E-12,
               -3.029372670E+04,  -8.490322080E-01] ),
       NASA( [ 1000.00,  6000.00], [  2.677037870E+00,   2.973183290E-03, 
               -7.737696900E-07,   9.443366890E-11,  -4.269009590E-15,
               -2.988589380E+04,   6.882555710E+00] )
             ),
    transport = gas_transport(
                     geom = "nonlinear",
                     diam =     2.60,
                     well_depth =   572.40,
                     dipole =     1.84,
                     rot_relax =     4.00),
    note = "L 8/89"
       )

species(name = "HO2",
    atoms = " H:1  O:2 ",
    thermo = (
       NASA( [  200.00,  1000.00], [  4.301798010E+00,  -4.749120510E-03, 
                2.115828910E-05,  -2.427638940E-08,   9.292251240E-12,
                2.948080400E+02,   3.716662450E+00] ),
       NASA( [ 1000.00,  6000.00], [  4.172287280E+00,   1.881176470E-03, 
               -3.462774080E-07,   1.946578530E-11,   1.762542940E-16,
                6.181029640E+01,   2.957677460E+00] )
             ),
    transport = gas_transport(
                     geom = "nonlinear",
                     diam =     3.46,
                     well_depth =   107.40,
                     rot_relax =     1.00),
    note = "L 5/89"
       )

species(name = "H2O2",
    atoms = " H:2  O:2 ",
    thermo = (
       NASA( [  200.00,  1000.00], [  4.276112690E+00,  -5.428224170E-04, 
                1.673357010E-05,  -2.157708130E-08,   8.624543630E-12,
               -1.775429890E+04,   3.435050740E+00] ),
       NASA( [ 1000.00,  6000.00], [  4.573335370E+00,   4.049840700E-03, 
               -1.294794790E-06,   1.972817100E-10,  -1.134028460E-14,
               -1.805481210E+04,   7.042784880E-01] )
             ),
    transport = gas_transport(
                     geom = "nonlinear",
                     diam =     3.46,
                     well_depth =   107.40,
                     rot_relax =     3.80),
    note = "L 7/88"
       )

species(name = "C",
    atoms = " C:1 ",
    thermo = (
       NASA( [  200.00,  1000.00], [  2.554239550E+00,  -3.215377240E-04, 
                7.337922450E-07,  -7.322348890E-10,   2.665214460E-13,
                8.544388320E+04,   4.531308480E+00] ),
       NASA( [ 1000.00,  6000.00], [  2.605582980E+00,  -1.959343350E-04, 
                1.067372190E-07,  -1.642393900E-11,   8.187057520E-16,
                8.541294430E+04,   4.192386810E+00] )
             ),
    transport = gas_transport(
                     geom = "atom",
                     diam =     3.30,
                     well_depth =    71.40),
    note = "L11/88"
       )

species(name = "CH",
    atoms = " C:1  H:1 ",
    thermo = (
       NASA( [  200.00,  1000.00], [  3.489816650E+00,   3.238355410E-04, 
               -1.688990650E-06,   3.162173270E-09,  -1.406090670E-12,
                7.079729340E+04,   2.084011080E+00] ),
       NASA( [ 1000.00,  6000.00], [  2.520906270E+00,   1.765372350E-03, 
               -4.614757050E-07,   5.928854720E-11,  -3.347319620E-15,
                7.113143630E+04,   7.405321630E+00] )
             ),
    transport = gas_transport(
                     geom = "linear",
                     diam =     2.75,
                     well_depth =    80.00),
    note = "TPIS79"
       )

species(name = "CH2",
    atoms = " C:1  H:2 ",
    thermo = (
       NASA( [  200.00,  1000.00], [  3.744848790E+00,   1.179608230E-03, 
                1.945022640E-06,  -2.529325060E-09,   1.124476310E-12,
                4.557995230E+04,   1.628501250E+00] ),
       NASA( [ 1000.00,  6000.00], [  2.777231660E+00,   3.836634760E-03, 
               -1.348532200E-06,   2.116412550E-10,  -1.234456620E-14,
                4.585903040E+04,   6.672864290E+00] )
             ),
    transport = gas_transport(
                     geom = "linear",
                     diam =     3.80,
                     well_depth =   144.00),
    note = "L S/93"
       )

species(name = "CH2(S)",
    atoms = " C:1  H:2 ",
    thermo = (
       NASA( [  200.00,  1000.00], [ 4.193313250E+000, -2.331051840E-003, 
               8.156764510E-006, -6.629859810E-009,  1.932331990E-012,
               5.036622460E+004, -7.467343100E-001] ),
       NASA( [ 1000.00,  6000.00], [ 3.135016860E+000,  2.895939260E-003, 
              -8.166680900E-007,  1.135726970E-010, -6.362628350E-015,
               5.050405040E+004,  4.060306210E+000] )
             ),
    transport = gas_transport(
                     geom = "linear",
                     diam =     3.80,
                     well_depth =   144.00),
    note = "L S/93"
       )

species(name = "CH3",
    atoms = " C:1  H:3 ",
    thermo = (
       NASA( [  200.00,  1000.00], [  3.673590400E+00,   2.010951750E-03, 
                5.730218560E-06,  -6.871174250E-09,   2.543857340E-12,
                1.644499880E+04,   1.604564330E+00] ),
       NASA( [ 1000.00,  6000.00], [  2.968660330E+00,   5.807175460E-03, 
               -1.977785340E-06,   3.072787520E-10,  -1.788538970E-14,
                1.653888690E+04,   4.779445030E+00] )
             ),
    transport = gas_transport(
                     geom = "linear",
                     diam =     3.80,
                     well_depth =   144.00),
    note = "L11/89"
       )

species(name = "CH4",
    atoms = " C:1  H:4 ",
    thermo = (
       NASA( [  200.00,  1000.00], [  5.149876130E+00,  -1.367097880E-02, 
                4.918005990E-05,  -4.847430260E-08,   1.666939560E-11,
               -1.024664760E+04,  -4.641303760E+00] ),
       NASA( [ 1000.00,  6000.00], [  1.635526430E+00,   1.008427950E-02, 
               -3.369162540E-06,   5.349586670E-10,  -3.155188330E-14,
               -1.000564550E+04,   9.993133260E+00] )
             ),
    transport = gas_transport(
                     geom = "nonlinear",
                     diam =     3.75,
                     well_depth =   141.40,
                     polar =     2.60,
                     rot_relax =    13.00),
    note = "L 8/88"
       )

species(name = "CO",
    atoms = " C:1  O:1 ",
    thermo = (
       NASA( [  200.00,  1000.00], [  3.579533470E+00,  -6.103536800E-04, 
                1.016814330E-06,   9.070058840E-10,  -9.044244990E-13,
               -1.434408600E+04,   3.508409280E+00] ),
       NASA( [ 1000.00,  6000.00], [  3.048485830E+00,   1.351728180E-03, 
               -4.857940750E-07,   7.885364860E-11,  -4.698074890E-15,
               -1.426611710E+04,   6.017097900E+00] )
             ),
    transport = gas_transport(
                     geom = "linear",
                     diam =     3.65,
                     well_depth =    98.10,
                     polar =     1.95,
                     rot_relax =     1.80),
    note = "TPIS79"
       )

species(name = "CO2",
    atoms = " C:1  O:2 ",
    thermo = (
       NASA( [  200.00,  1000.00], [  2.356773520E+00,   8.984596770E-03, 
               -7.123562690E-06,   2.459190220E-09,  -1.436995480E-13,
               -4.837196970E+04,   9.901052220E+00] ),
       NASA( [ 1000.00,  6000.00], [  4.636594930E+00,   2.741319910E-03, 
               -9.958285310E-07,   1.603730110E-10,  -9.161034680E-15,
               -4.902493410E+04,  -1.935348550E+00] )
             ),
    transport = gas_transport(
                     geom = "linear",
                     diam =     3.76,
                     well_depth =   244.00,
                     polar =     2.65,
                     rot_relax =     2.10),
    note = "L 7/88"
       )

species(name = "HCO",
    atoms = " H:1  C:1  O:1 ",
    thermo = (
       NASA( [  200.00,  1000.00], [  4.221185840E+00,  -3.243925320E-03, 
                1.377994460E-05,  -1.331440930E-08,   4.337688650E-12,
                3.839564960E+03,   3.394372430E+00] ),
       NASA( [ 1000.00,  6000.00], [  3.648962090E+00,   3.080908190E-03, 
               -1.124298760E-06,   1.863080850E-10,  -1.139518280E-14,
                3.712090480E+03,   5.061474060E+00] )
             ),
    transport = gas_transport(
                     geom = "nonlinear",
                     diam =     3.59,
                     well_depth =   498.00),
    note = "L12/89"
       )

species(name = "CH2O",
    atoms = " H:2  C:1  O:1 ",
    thermo = (
       NASA( [  200.00,  1000.00], [  4.793723150E+00,  -9.908333690E-03, 
                3.732200080E-05,  -3.792852610E-08,   1.317726520E-11,
               -1.430895670E+04,   6.028129000E-01] ),
       NASA( [ 1000.00,  6000.00], [  3.169526540E+00,   6.193205830E-03, 
               -2.250563770E-06,   3.659756800E-10,  -2.201494700E-14,
               -1.447844440E+04,   6.042094490E+00] )
             ),
    transport = gas_transport(
                     geom = "nonlinear",
                     diam =     3.59,
                     well_depth =   498.00,
                     rot_relax =     2.00),
    note = "L 8/88"
       )

species(name = "CH2OH",
    atoms = " C:1  H:3  O:1 ",
    thermo = (
       NASA( [  200.00,  1000.00], [  3.863889180E+00,   5.596723040E-03, 
                5.932717910E-06,  -1.045320120E-08,   4.369672780E-12,
               -2.505013670E+03,   5.473022430E+00] ),
       NASA( [ 1000.00,  6000.00], [  4.676256390E+00,   6.564060140E-03, 
               -2.265254710E-06,   3.556024810E-10,  -2.086261900E-14,
               -2.892485740E+03,   4.877370050E-01] )
             ),
    transport = gas_transport(
                     geom = "nonlinear",
                     diam =     3.69,
                     well_depth =   417.00,
                     dipole =     1.70,
                     rot_relax =     2.00),
    note = "GUNL93"
       )

species(name = "CH3O",
    atoms = " C:1  H:3  O:1 ",
    thermo = (
       NASA( [  200.00,  1000.00], [  3.265248940E+00,   3.303001170E-03, 
                1.704939640E-05,  -2.271044760E-08,   8.807565200E-12,
                3.332814880E+02,   7.425680400E+00] ),
       NASA( [ 1000.00,  6000.00], [  4.266765380E+00,   7.853801100E-03, 
               -2.837399430E-06,   4.590396590E-10,  -2.744260840E-14,
               -3.400732270E+02,   3.856374470E-01] )
             ),
    transport = gas_transport(
                     geom = "nonlinear",
                     diam =     3.69,
                     well_depth =   417.00,
                     dipole =     1.70,
                     rot_relax =     2.00),
    note = "121686"
       )

species(name = "CH3OH",
    atoms = " C:1  H:4  O:1 ",
    thermo = (
       NASA( [  200.00,  1000.00], [  5.715395820E+00,  -1.523091290E-02, 
                6.524411550E-05,  -7.108068890E-08,   2.613526980E-11,
               -2.564276560E+04,  -1.504098230E+00] ),
       NASA( [ 1000.00,  6000.00], [  3.601344860E+00,   1.024309540E-02, 
               -3.599855170E-06,   5.725059860E-10,  -3.391176400E-14,
               -2.599719100E+04,   4.705122530E+00] )
             ),
    transport = gas_transport(
                     geom = "nonlinear",
                     diam =     3.63,
                     well_depth =   481.80,
                     rot_relax =     1.00),
    note = "L 8/88"
       )

species(name = "C2H",
    atoms = " C:2  H:1 ",
    thermo = (
       NASA( [  200.00,  1000.00], [  2.889657330E+00,   1.340996110E-02, 
               -2.847695010E-05,   2.947910450E-08,  -1.093315110E-11,
                6.683939320E+04,   6.222964380E+00] ),
       NASA( [ 1000.00,  6000.00], [  3.361183950E+00,   4.389897240E-03, 
               -1.627722180E-06,   2.605566630E-10,  -1.529393050E-14,
                6.704922140E+04,   5.571275420E+00] )
             ),
    transport = gas_transport(
                     geom = "linear",
                     diam =     4.10,
                     well_depth =   209.00,
                     rot_relax =     2.50),
    note = "L 1/91"
       )

species(name = "C2H2",
    atoms = " C:2  H:2 ",
    thermo = (
       NASA( [  200.00,  1000.00], [  8.086810940E-01,   2.336156290E-02, 
               -3.551718150E-05,   2.801524370E-08,  -8.500729740E-12,
                2.642898070E+04,   1.393970510E+01] ),
       NASA( [ 1000.00,  6000.00], [  4.658785040E+00,   4.883965470E-03, 
               -1.608287750E-06,   2.469742260E-10,  -1.386056800E-14,
                2.575940440E+04,  -3.998347720E+00] )
             ),
    transport = gas_transport(
                     geom = "linear",
                     diam =     4.10,
                     well_depth =   209.00,
                     rot_relax =     2.50),
    note = "L 1/91"
       )

species(name = "C2H3",
    atoms = " C:2  H:3 ",
    thermo = (
       NASA( [  200.00,  1000.00], [  3.212466450E+00,   1.514791620E-03, 
                2.592094120E-05,  -3.576578470E-08,   1.471508730E-11,
                3.485984680E+04,   8.510540250E+00] ),
       NASA( [ 1000.00,  6000.00], [  4.351050550E+00,   7.493300910E-03, 
               -2.643145860E-06,   4.212859060E-10,  -2.498961190E-14,
                3.415461810E+04,   5.716765290E-01] )
             ),
    transport = gas_transport(
                     geom = "nonlinear",
                     diam =     4.10,
                     well_depth =   209.00,
                     rot_relax =     1.00),
    note = "L 2/92"
       )

species(name = "C2H4",
    atoms = " C:2  H:4 ",
    thermo = (
       NASA( [  200.00,  1000.00], [  3.959201480E+00,  -7.570522470E-03, 
                5.709902920E-05,  -6.915887530E-08,   2.698843730E-11,
                5.089775930E+03,   4.097330960E+00] ),
       NASA( [ 1000.00,  6000.00], [  3.991827610E+00,   1.048339100E-02, 
               -3.717213850E-06,   5.946285140E-10,  -3.536305260E-14,
                4.268658190E+03,  -2.690521510E-01] )
             ),
    transport = gas_transport(
                     geom = "nonlinear",
                     diam =     3.97,
                     well_depth =   280.80,
                     rot_relax =     1.50),
    note = "L 1/91"
       )

species(name = "C2H5",
    atoms = " C:2  H:5 ",
    thermo = (
       NASA( [  200.00,  1000.00], [  4.306465680E+00,  -4.186588920E-03, 
                4.971428070E-05,  -5.991266060E-08,   2.305090040E-11,
                1.284162650E+04,   4.707209240E+00] ),
       NASA( [ 1000.00,  6000.00], [  4.288005350E+00,   1.243373740E-02, 
               -4.413838290E-06,   7.065269430E-10,  -4.203418560E-14,
                1.205642000E+04,   8.452996230E-01] )
             ),
    transport = gas_transport(
                     geom = "nonlinear",
                     diam =     4.30,
                     well_depth =   252.30,
                     rot_relax =     1.50),
    note = "L12/92"
       )

species(name = "C2H6",
    atoms = " C:2  H:6 ",
    thermo = (
       NASA( [  200.00,  1000.00], [  4.291424920E+00,  -5.501542700E-03, 
                5.994382880E-05,  -7.084662850E-08,   2.686857710E-11,
               -1.152220550E+04,   2.666823160E+00] ),
       NASA( [ 1000.00,  6000.00], [  4.046666740E+00,   1.535387660E-02, 
               -5.470393210E-06,   8.778262280E-10,  -5.231673050E-14,
               -1.244735120E+04,  -9.686836070E-01] )
             ),
    transport = gas_transport(
                     geom = "nonlinear",
                     diam =     4.30,
                     well_depth =   252.30,
                     rot_relax =     1.50),
    note = "L 8/88"
       )

species(name = "HCCO",
    atoms = " H:1  C:2  O:1 ",
    thermo = (
       NASA( [  300.00,  1000.00], [  2.251721400E+00,   1.765502100E-02, 
               -2.372910100E-05,   1.727575900E-08,  -5.066481100E-12,
                2.005944900E+04,   1.249041700E+01] ),
       NASA( [ 1000.00,  6000.00], [  5.628205800E+00,   4.085340100E-03, 
               -1.593454700E-06,   2.862605200E-10,  -1.940783200E-14,
                1.932721500E+04,  -3.930259500E+00] )
             ),
    transport = gas_transport(
                     geom = "nonlinear",
                     diam =     2.50,
                     well_depth =   150.00,
                     rot_relax =     1.00),
    note = "SRIC91"
       )

species(name = "CH2CO",
    atoms = " C:2  H:2  O:1 ",
    thermo = (
       NASA( [  200.00,  1000.00], [  2.135836300E+00,   1.811887210E-02, 
               -1.739474740E-05,   9.343975680E-09,  -2.014576150E-12,
               -7.042918040E+03,   1.221564800E+01] ),
       NASA( [ 1000.00,  6000.00], [  5.757933070E+00,   6.349114130E-03, 
               -2.258148350E-06,   3.620267330E-10,  -2.156512040E-14,
               -7.978783840E+03,  -6.107721500E+00] )
             ),
    transport = gas_transport(
                     geom = "nonlinear",
                     diam =     3.97,
                     well_depth =   436.00,
                     rot_relax =     2.00),
    note = "L 5/90"
       )

species(name = "HCCOH",
    atoms = " C:2  O:1  H:2 ",
    thermo = (
       NASA( [  300.00,  1000.00], [  1.242373300E+00,   3.107220100E-02, 
               -5.086686400E-05,   4.313713100E-08,  -1.401459400E-11,
                8.031614300E+03,   1.387431900E+01] ),
       NASA( [ 1000.00,  5000.00], [  5.923829100E+00,   6.792360000E-03, 
               -2.565856400E-06,   4.498784100E-10,  -2.994010100E-14,
                7.264626000E+03,  -7.601774200E+00] )
             ),
    transport = gas_transport(
                     geom = "nonlinear",
                     diam =     3.97,
                     well_depth =   436.00,
                     rot_relax =     2.00),
    note = "SRI91"
       )

species(name = "N",
    atoms = " N:1 ",
    thermo = (
       NASA( [  200.00,  1000.00], [  2.500000000E+00,   0.000000000E+00, 
                0.000000000E+00,   0.000000000E+00,   0.000000000E+00,
                5.610463700E+04,   4.193908700E+00] ),
       NASA( [ 1000.00,  6000.00], [  2.415942900E+00,   1.748906500E-04, 
               -1.190236900E-07,   3.022624500E-11,  -2.036098200E-15,
                5.613377300E+04,   4.649609600E+00] )
             ),
    transport = gas_transport(
                     geom = "atom",
                     diam =     3.30,
                     well_depth =    71.40),
    note = "L 6/88"
       )

species(name = "NH",
    atoms = " N:1  H:1 ",
    thermo = (
       NASA( [  200.00,  1000.00], [  3.492908500E+00,   3.117919800E-04, 
               -1.489048400E-06,   2.481644200E-09,  -1.035696700E-12,
                4.188062900E+04,   1.848327800E+00] ),
       NASA( [ 1000.00,  6000.00], [  2.783692800E+00,   1.329843000E-03, 
               -4.247804700E-07,   7.834850100E-11,  -5.504447000E-15,
                4.212084800E+04,   5.740779900E+00] )
             ),
    transport = gas_transport(
                     geom = "linear",
                     diam =     2.65,
                     well_depth =    80.00,
                     rot_relax =     4.00),
    note = "And94"
       )

species(name = "NH2",
    atoms = " N:1  H:2 ",
    thermo = (
       NASA( [  200.00,  1000.00], [  4.204002900E+00,  -2.106138500E-03, 
                7.106834800E-06,  -5.611519700E-09,   1.644071700E-12,
                2.188591000E+04,  -1.418424800E-01] ),
       NASA( [ 1000.00,  6000.00], [  2.834742100E+00,   3.207308200E-03, 
               -9.339080400E-07,   1.370295300E-10,  -7.920614400E-15,
                2.217195700E+04,   6.520416300E+00] )
             ),
    transport = gas_transport(
                     geom = "nonlinear",
                     diam =     2.65,
                     well_depth =    80.00,
                     polar =     2.26,
                     rot_relax =     4.00),
    note = "And89"
       )

species(name = "NH3",
    atoms = " N:1  H:3 ",
    thermo = (
       NASA( [  200.00,  1000.00], [  4.286027400E+00,  -4.660523000E-03, 
                2.171851300E-05,  -2.280888700E-08,   8.263804600E-12,
               -6.741728500E+03,  -6.253727700E-01] ),
       NASA( [ 1000.00,  6000.00], [  2.634452100E+00,   5.666256000E-03, 
               -1.727867600E-06,   2.386716100E-10,  -1.257878600E-14,
               -6.544695800E+03,   6.566292800E+00] )
             ),
    transport = gas_transport(
                     geom = "nonlinear",
                     diam =     2.92,
                     well_depth =   481.00,
                     dipole =     1.47,
                     rot_relax =    10.00),
    note = "J 6/77"
       )

species(name = "NNH",
    atoms = " N:2  H:1 ",
    thermo = (
       NASA( [  200.00,  1000.00], [  4.344692700E+00,  -4.849707200E-03, 
                2.005945900E-05,  -2.172646400E-08,   7.946953900E-12,
                2.879197300E+04,   2.977941000E+00] ),
       NASA( [ 1000.00,  6000.00], [  3.766754400E+00,   2.891508200E-03, 
               -1.041662000E-06,   1.684259400E-10,  -1.009189600E-14,
                2.865069700E+04,   4.470506700E+00] )
             ),
    transport = gas_transport(
                     geom = "nonlinear",
                     diam =     3.80,
                     well_depth =    71.40,
                     rot_relax =     1.00),
    note = "T07/93"
       )

species(name = "NO",
    atoms = " N:1  O:1 ",
    thermo = (
       NASA( [  200.00,  1000.00], [  4.218476300E+00,  -4.638976000E-03, 
                1.104102200E-05,  -9.336135400E-09,   2.803577000E-12,
                9.844623000E+03,   2.280846400E+00] ),
       NASA( [ 1000.00,  6000.00], [  3.260605600E+00,   1.191104300E-03, 
               -4.291704800E-07,   6.945766900E-11,  -4.033609900E-15,
                9.920974600E+03,   6.369302700E+00] )
             ),
    transport = gas_transport(
                     geom = "linear",
                     diam =     3.62,
                     well_depth =    97.53,
                     polar =     1.76,
                     rot_relax =     4.00),
    note = "RUS 78"
       )

species(name = "NO2",
    atoms = " N:1  O:2 ",
    thermo = (
       NASA( [  200.00,  1000.00], [  3.944031200E+00,  -1.585429000E-03, 
                1.665781200E-05,  -2.047542600E-08,   7.835056400E-12,
                2.896617900E+03,   6.311991700E+00] ),
       NASA( [ 1000.00,  6000.00], [  4.884754200E+00,   2.172395600E-03, 
               -8.280690600E-07,   1.574751000E-10,  -1.051089500E-14,
                2.316498300E+03,  -1.174169500E-01] )
             ),
    transport = gas_transport(
                     geom = "nonlinear",
                     diam =     3.50,
                     well_depth =   200.00,
                     rot_relax =     1.00),
    note = "L 7/88"
       )

species(name = "N2O",
    atoms = " N:2  O:1 ",
    thermo = (
       NASA( [  200.00,  1000.00], [  2.257150200E+00,   1.130472800E-02, 
               -1.367131900E-05,   9.681980600E-09,  -2.930718200E-12,
                8.741774400E+03,   1.075799200E+01] ),
       NASA( [ 1000.00,  6000.00], [  4.823072900E+00,   2.627025100E-03, 
               -9.585087400E-07,   1.600071200E-10,  -9.775230300E-15,
                8.073404800E+03,  -2.201720700E+00] )
             ),
    transport = gas_transport(
                     geom = "linear",
                     diam =     3.83,
                     well_depth =   232.40,
                     rot_relax =     1.00),
    note = "L 7/88"
       )

species(name = "HNO",
    atoms = " H:1  N:1  O:1 ",
    thermo = (
       NASA( [  200.00,  1000.00], [  4.533491600E+00,  -5.669617100E-03, 